#2 2 3 2
#O 178 0.05
#Si 177 0.05
data_MFI-1
_audit_creation_date              2014-03-29
_audit_creation_method            'Materials Studio'
_symmetry_space_group_name_H-M    'PNMA'
_symmetry_Int_Tables_number       62
_symmetry_cell_setting            orthorhombic
loop_
_symmetry_equiv_pos_as_xyz
  x,y,z
  -x+1/2,-y,z+1/2
  -x,y+1/2,-z
  x+1/2,-y+1/2,-z+1/2
  -x,-y,-z
  x+1/2,y,-z+1/2
  x,-y+1/2,z
  -x+1/2,y+1/2,z+1/2
_cell_length_a                    20.0220
_cell_length_b                    19.8990
_cell_length_c                    13.3830
_cell_angle_alpha                 90.0000
_cell_angle_beta                  90.0000
_cell_angle_gamma                 90.0000
loop_
_atom_site_label
_atom_site_type_symbol
_atom_site_fract_x
_atom_site_fract_y
_atom_site_fract_z
_atom_site_U_iso_or_equiv
_atom_site_adp_type
_atom_site_occupancy
SI1    Si    0.42238   0.05650  -0.33598   0.01760  Uiso   1.00
SI2    Si    0.30716   0.02772  -0.18930   0.02064  Uiso   1.00
SI3    Si    0.27911   0.06127   0.03120   0.01925  Uiso   1.00
SI4    Si    0.12215   0.06298   0.02670   0.01811  Uiso   1.00
SI5    Si    0.07128   0.02722  -0.18551   0.01596  Uiso   1.00
SI6    Si    0.18641   0.05896  -0.32818   0.01786  Uiso   1.00
SI7    Si    0.42265  -0.17250  -0.32718   0.01849  Uiso   1.00
SI8    Si    0.30778  -0.13016  -0.18548   0.01988  Uiso   1.00
SI9    Si    0.27554  -0.17279   0.03109   0.01760  Uiso   1.00
SI10   Si    0.12058  -0.17310   0.02979   0.01925  Uiso   1.00
SI11   Si    0.07044  -0.13037  -0.18200   0.01925  Uiso   1.00
SI12   Si    0.18706  -0.17327  -0.31933   0.02001  Uiso   1.00
O1     O     0.37260   0.05340  -0.24420   0.04901  Uiso   1.00
O2     O     0.30840   0.05870  -0.07890   0.04002  Uiso   1.00
O3     O     0.20070   0.05920   0.02890   0.06396  Uiso   1.00
O4     O     0.09690   0.06110  -0.08560   0.04395  Uiso   1.00
O5     O     0.11490   0.05410  -0.27630   0.03394  Uiso   1.00
O6     O     0.24350   0.05530  -0.24600   0.04597  Uiso   1.00
O7     O     0.37420  -0.15610  -0.23720   0.04699  Uiso   1.00
O8     O     0.30850  -0.15520  -0.07280   0.04395  Uiso   1.00
O9     O     0.19800  -0.15540   0.02880   0.04002  Uiso   1.00
O10    O     0.09100  -0.16140  -0.07770   0.05801  Uiso   1.00
O11    O     0.11690  -0.15780  -0.26940   0.04800  Uiso   1.00
O12    O     0.24480  -0.15940  -0.24220   0.05497  Uiso   1.00
O13    O     0.30470  -0.05100  -0.18660   0.07105  Uiso   1.00
O14    O     0.07680  -0.05190  -0.17690   0.04699  Uiso   1.00
O15    O     0.41610   0.12760  -0.38960   0.04395  Uiso   1.00
O16    O     0.40860  -0.00170  -0.41360   0.04597  Uiso   1.00
O17    O     0.40200  -0.13140  -0.42390   0.04002  Uiso   1.00
O18    O     0.18860   0.12980  -0.38360   0.03597  Uiso   1.00
O19    O     0.19400   0.00070  -0.40820   0.04496  Uiso   1.00
O20    O     0.19510  -0.12910  -0.41900   0.04306  Uiso   1.00
O21    O    -0.00370   0.05020  -0.20800   0.03306  Uiso   1.00
O22    O    -0.00400  -0.15280  -0.20780   0.04002  Uiso   1.00
O23    O     0.41920  -0.25000  -0.35400   0.04395  Uiso   1.00
O24    O     0.18840  -0.25000  -0.35380   0.03394  Uiso   1.00
O25    O     0.28830  -0.25000   0.05790   0.03306  Uiso   1.00
O26    O     0.10850  -0.25000   0.06110   0.03002  Uiso   1.00
